Results/PF_SnapMode/Switch_Close/POWER_REPORT.txt

SYMMETRICAL COMPONENT POWERS BY CIRCUIT ELEMENT (first 3 phases)                                     Excess Power

Element                      Term    P1(kW)   Q1(kvar)       P2         Q2      P0      Q0       P_Norm      Q_Norm     P_Emerg    Q_Emerg

"Vsource.SOURCE"              1        0.0       -0.0        0.0        0.0     0.0    -0.0
"Vsource.SOURCE"              2        0.0        0.0        0.0        0.0     0.0     0.0
"Vsource.HV_SOURCE1"          1     -130.3      -43.1       -0.0       -0.0    -0.0    -0.0
"Vsource.HV_SOURCE1"          2        0.0        0.0        0.0        0.0     0.0     0.0
"Vsource.HV_SOURCE2"          1     -110.2      -36.5       -0.0       -0.0    -0.0    -0.0
"Vsource.HV_SOURCE2"          2        0.0        0.0        0.0        0.0     0.0     0.0
"Transformer.TRANSFORMER1"    1       30.3       10.2        0.0        0.0    -0.0    -0.0        0.0        0.0        0.0        0.0
"Transformer.TRANSFORMER1"    2      -30.3      -10.1       -0.0       -0.0     0.0     0.0
"Transformer.TRANSFORMER2"    1       30.2       10.2        0.0        0.0     0.0     0.0        0.0        0.0        0.0        0.0
"Transformer.TRANSFORMER2"    2      -30.2      -10.1       -0.0       -0.0     0.0     0.0
"Line.LV_LINE1"               1       30.3       10.1        0.0        0.0    -0.0    -0.0        0.0        0.0        0.0        0.0
"Line.LV_LINE1"               2      -27.8       -9.1       -0.0       -0.0     0.0     0.0
"Line.LV_LINE2"               1       30.2       10.1        0.0        0.0    -0.0    -0.0        0.0        0.0        0.0        0.0
"Line.LV_LINE2"               2      -27.8       -9.1       -0.0       -0.0     0.0     0.0
"Line.SWITCH_CONNECTION"      1       -9.3       -3.0       -0.0       -0.0     0.0     0.0        0.0        0.0        0.0        0.0
"Line.SWITCH_CONNECTION"      2        9.3        3.0        0.0        0.0    -0.0    -0.0
"Load.LOAD1"                  1      100.0       32.9        0.0        0.0     0.0     0.0
"Load.LOAD2"                  1       80.0       26.3        0.0        0.0     0.0     0.0
"Load.LOAD3"                  1       37.1       12.2        0.0        0.0    -0.0    -0.0
"Load.LOAD4"                  1       18.5        6.1        0.0        0.0    -0.0    -0.0

Total Circuit Losses =    4.9 +j    2.1
